/*--------------------------------*- C++ -*----------------------------------*\
| =========                 |                                                 |
| \\      /  F ield         | OpenFOAM: The Open Source CFD Toolbox           |
|  \\    /   O peration     | Version:  v2206                                 |
|   \\  /    A nd           | Website:  www.openfoam.com                      |
|    \\/     M anipulation  |                                                 |
\*---------------------------------------------------------------------------*/
FoamFile
{
    version     2.0;
    format      ascii;
    class       dictionary;
    object      blockMeshDict;
}
// * * * * * * * * * * * * * * * * * * * * * * * * * * * * * * * * * * * * * //

scale   1;

vertices
(
    name v1 (0 -1 -0.05)
    name v2 (5 -1 -0.05)
    name v3 (5 1 -0.05)
    name v4 (0 1 -0.05)

    name v5 (0 -1 0.05)
    name v6 (5 -1 0.05)
    name v7 (5 1 0.05)
    name v8 (0 1 0.05)
);

blocks
(
    hex (v1 v2 v3 v4 v5 v6 v7 v8) (100 40 1) simpleGrading (1 1 1)
);

edges
(
);

defaultPatch
{
    type patch;
    name boundary;
}

boundary
(
    frontAndBack
    {
        type empty;
        faces
        (
            (v1 v2 v3 v4)
            (v5 v6 v7 v8)
        );
    }
);


// ************************************************************************* //
