/*--------------------------------*- C++ -*----------------------------------*\
| =========                 |                                                 |
| \\      /  F ield         | OpenFOAM: The Open Source CFD Toolbox           |
|  \\    /   O peration     | Version:  v2012                                 |
|   \\  /    A nd           | Website:  www.openfoam.com                      |
|    \\/     M anipulation  |                                                 |
\*---------------------------------------------------------------------------*/
FoamFile
{
    version     2.0;
    format      ascii;
    class       polyBoundaryMesh;
    location    "constant/polyMesh";
    object      boundary;
}
// * * * * * * * * * * * * * * * * * * * * * * * * * * * * * * * * * * * * * //

6
(
    north
    {
        type            patch;
        nFaces          10;
        startFace       180;
    }
    south
    {
        type            patch;
        nFaces          10;
        startFace       190;
    }
    west
    {
        type            patch;
        nFaces          10;
        startFace       200;
    }
    east
    {
        type            patch;
        nFaces          10;
        startFace       210;
    }
    top
    {
        type            empty;
        inGroups        1(empty);
        nFaces          100;
        startFace       220;
    }
    bottom
    {
        type            empty;
        inGroups        1(empty);
        nFaces          100;
        startFace       320;
    }
)

// ************************************************************************* //
